682
 generated by VMD
 Ga        1.491100        0.000000        0.000000
 Ga        2.300000        0.000000        2.109000
 Ga        0.000000        1.641000        0.000000
 Ga        3.791100        1.641000        2.109000
 Ga        6.091100        0.000000        0.000000
 Ga        6.900000        0.000000        2.109000
 Ga        4.600000        1.641000        0.000000
 Ga        8.391100        1.641000        2.109000
 Ga       10.691100        0.000000        0.000000
 Ga       11.500000        0.000000        2.109000
 Ga        9.200000        1.641000        0.000000
 Ga       12.991100        1.641000        2.109000
 Ga       15.291100        0.000000        0.000000
 Ga       16.100000        0.000000        2.109000
 Ga       13.800000        1.641000        0.000000
 Ga       17.591101        1.641000        2.109000
 Ga       19.891100        0.000000        0.000000
 Ga       20.700001        0.000000        2.109000
 Ga       18.400000        1.641000        0.000000
 Ga       22.191099        1.641000        2.109000
 Ga       24.491100        0.000000        0.000000
 Ga       25.299999        0.000000        2.109000
 Ga       23.000000        1.641000        0.000000
 Ga       26.791100        1.641000        2.109000
 Ga       29.091101        0.000000        0.000000
 Ga       29.900000        0.000000        2.109000
 Ga       27.600000        1.641000        0.000000
 Ga       31.391100        1.641000        2.109000
 Ga       33.691101        0.000000        0.000000
 Ga       34.500000        0.000000        2.109000
 Ga       32.200001        1.641000        0.000000
 Ga       35.991100        1.641000        2.109000
 Ga       38.291100        0.000000        0.000000
 Ga       39.099998        0.000000        2.109000
 Ga       36.799999        1.641000        0.000000
 Ga       40.591099        1.641000        2.109000
 Ga       42.891102        0.000000        0.000000
 Ga       43.700001        0.000000        2.109000
 Ga       41.400002        1.641000        0.000000
 Ga       45.191101        1.641000        2.109000
 Ga       47.491100        0.000000        0.000000
 Ga       48.299999        0.000000        2.109000
 Ga       46.000000        1.641000        0.000000
 Ga       49.791100        1.641000        2.109000
 Ga        1.491100        3.282000        0.000000
 Ga        2.300000        3.282000        2.109000
 Ga        0.000000        4.923000        0.000000
 Ga        3.791100        4.923000        2.109000
 Ga        6.091100        3.282000        0.000000
 Ga        6.900000        3.282000        2.109000
 Ga        4.600000        4.923000        0.000000
 Ga        8.391100        4.923000        2.109000
 Ga       10.691100        3.282000        0.000000
 Ga       11.500000        3.282000        2.109000
 Ga        9.200000        4.923000        0.000000
 Ga       12.991100        4.923000        2.109000
 Ga       15.291100        3.282000        0.000000
 Ga       16.100000        3.282000        2.109000
 Ga       13.800000        4.923000        0.000000
 Ga       17.591101        4.923000        2.109000
 Ga       19.891100        3.282000        0.000000
 Ga       20.700001        3.282000        2.109000
 Ga       18.400000        4.923000        0.000000
 Ga       22.191099        4.923000        2.109000
 Ga       24.491100        3.282000        0.000000
 Ga       25.299999        3.282000        2.109000
 Ga       23.000000        4.923000        0.000000
 Ga       26.791100        4.923000        2.109000
 Ga       29.091101        3.282000        0.000000
 Ga       29.900000        3.282000        2.109000
 Ga       27.600000        4.923000        0.000000
 Ga       31.391100        4.923000        2.109000
 Ga       33.691101        3.282000        0.000000
 Ga       34.500000        3.282000        2.109000
 Ga       32.200001        4.923000        0.000000
 Ga       35.991100        4.923000        2.109000
 Ga       38.291100        3.282000        0.000000
 Ga       39.099998        3.282000        2.109000
 Ga       36.799999        4.923000        0.000000
 Ga       40.591099        4.923000        2.109000
 Ga       42.891102        3.282000        0.000000
 Ga       43.700001        3.282000        2.109000
 Ga       41.400002        4.923000        0.000000
 Ga       45.191101        4.923000        2.109000
 Ga       47.491100        3.282000        0.000000
 Ga       48.299999        3.282000        2.109000
 Ga       46.000000        4.923000        0.000000
 Ga       49.791100        4.923000        2.109000
 Ga        1.491100        6.564000        0.000000
 Ga        2.300000        6.564000        2.109000
 Ga        0.000000        8.205000        0.000000
 Ga        3.791100        8.205000        2.109000
 Ga        6.091100        6.564000        0.000000
 Ga        6.900000        6.564000        2.109000
 Ga        4.600000        8.205000        0.000000
 Ga        8.391100        8.205000        2.109000
 Ga       10.691100        6.564000        0.000000
 Ga       11.500000        6.564000        2.109000
 Ga        9.200000        8.205000        0.000000
 Ga       12.991100        8.205000        2.109000
 Ga       15.291100        6.564000        0.000000
 Ga       16.100000        6.564000        2.109000
 Ga       13.800000        8.205000        0.000000
 Ga       17.591101        8.205000        2.109000
 Ga       19.891100        6.564000        0.000000
 Ga       20.700001        6.564000        2.109000
 Ga       18.400000        8.205000        0.000000
 Ga       22.191099        8.205000        2.109000
 Ga       24.491100        6.564000        0.000000
 Ga       25.299999        6.564000        2.109000
 Ga       23.000000        8.205000        0.000000
 Ga       26.791100        8.205000        2.109000
 Ga       29.091101        6.564000        0.000000
 Ga       29.900000        6.564000        2.109000
 Ga       27.600000        8.205000        0.000000
 Ga       31.391100        8.205000        2.109000
 Ga       33.691101        6.564000        0.000000
 Ga       34.500000        6.564000        2.109000
 Ga       32.200001        8.205000        0.000000
 Ga       35.991100        8.205000        2.109000
 Ga       38.291100        6.564000        0.000000
 Ga       39.099998        6.564000        2.109000
 Ga       36.799999        8.205000        0.000000
 Ga       40.591099        8.205000        2.109000
 Ga       42.891102        6.564000        0.000000
 Ga       43.700001        6.564000        2.109000
 Ga       41.400002        8.205000        0.000000
 Ga       45.191101        8.205000        2.109000
 Ga       47.491100        6.564000        0.000000
 Ga       48.299999        6.564000        2.109000
 Ga       46.000000        8.205000        0.000000
 Ga       49.791100        8.205000        2.109000
 Ga        1.491100        9.846000        0.000000
 Ga        2.300000        9.846000        2.109000
 Ga        0.000000       11.487000        0.000000
 Ga        3.791100       11.487000        2.109000
 Ga        6.091100        9.846000        0.000000
 Ga        6.900000        9.846000        2.109000
 Ga        4.600000       11.487000        0.000000
 Ga        8.391100       11.487000        2.109000
 Ga       10.691100        9.846000        0.000000
 Ga       11.500000        9.846000        2.109000
 Ga        9.200000       11.487000        0.000000
 Ga       12.991100       11.487000        2.109000
 Ga       15.291100        9.846000        0.000000
 Ga       16.100000        9.846000        2.109000
 Ga       13.800000       11.487000        0.000000
 Ga       17.591101       11.487000        2.109000
 Ga       19.891100        9.846000        0.000000
 Ga       20.700001        9.846000        2.109000
 Ga       18.400000       11.487000        0.000000
 Ga       22.191099       11.487000        2.109000
 Ga       24.491100        9.846000        0.000000
 Ga       25.299999        9.846000        2.109000
 Ga       23.000000       11.487000        0.000000
 Ga       26.791100       11.487000        2.109000
 Ga       29.091101        9.846000        0.000000
 Ga       29.900000        9.846000        2.109000
 Ga       27.600000       11.487000        0.000000
 Ga       31.391100       11.487000        2.109000
 Ga       33.691101        9.846000        0.000000
 Ga       34.500000        9.846000        2.109000
 Ga       32.200001       11.487000        0.000000
 Ga       35.991100       11.487000        2.109000
 Ga       38.291100        9.846000        0.000000
 Ga       39.099998        9.846000        2.109000
 Ga       36.799999       11.487000        0.000000
 Ga       40.591099       11.487000        2.109000
 Ga       42.891102        9.846000        0.000000
 Ga       43.700001        9.846000        2.109000
 Ga       41.400002       11.487000        0.000000
 Ga       45.191101       11.487000        2.109000
 Ga       47.491100        9.846000        0.000000
 Ga       48.299999        9.846000        2.109000
 Ga       46.000000       11.487000        0.000000
 Ga       49.791100       11.487000        2.109000
 Ga        1.491100       13.128000        0.000000
 Ga        2.300000       13.128000        2.109000
 Ga        0.000000       14.769000        0.000000
 Ga        3.791100       14.769000        2.109000
 Ga        6.091100       13.128000        0.000000
 Ga        6.900000       13.128000        2.109000
 Ga        4.600000       14.769000        0.000000
 Ga        8.391100       14.769000        2.109000
 Ga       10.691100       13.128000        0.000000
 Ga       11.500000       13.128000        2.109000
 Ga        9.200000       14.769000        0.000000
 Ga       12.991100       14.769000        2.109000
 Ga       15.291100       13.128000        0.000000
 Ga       16.100000       13.128000        2.109000
 Ga       13.800000       14.769000        0.000000
 Ga       17.591101       14.769000        2.109000
 Ga       19.891100       13.128000        0.000000
 Ga       20.700001       13.128000        2.109000
 Ga       18.400000       14.769000        0.000000
 Ga       22.191099       14.769000        2.109000
 Ga       24.491100       13.128000        0.000000
 Ga       25.299999       13.128000        2.109000
 Ga       23.000000       14.769000        0.000000
 Ga       26.791100       14.769000        2.109000
 Ga       29.091101       13.128000        0.000000
 Ga       29.900000       13.128000        2.109000
 Ga       27.600000       14.769000        0.000000
 Ga       31.391100       14.769000        2.109000
 Ga       33.691101       13.128000        0.000000
 Ga       34.500000       13.128000        2.109000
 Ga       32.200001       14.769000        0.000000
 Ga       35.991100       14.769000        2.109000
 Ga       38.291100       13.128000        0.000000
 Ga       39.099998       13.128000        2.109000
 Ga       36.799999       14.769000        0.000000
 Ga       40.591099       14.769000        2.109000
 Ga       42.891102       13.128000        0.000000
 Ga       43.700001       13.128000        2.109000
 Ga       41.400002       14.769000        0.000000
 Ga       45.191101       14.769000        2.109000
 Ga       47.491100       13.128000        0.000000
 Ga       48.299999       13.128000        2.109000
 Ga       46.000000       14.769000        0.000000
 Ga       49.791100       14.769000        2.109000
 Ga        1.491100       16.410000        0.000000
 Ga        2.300000       16.410000        2.109000
 Ga        0.000000       18.051001        0.000000
 Ga        3.791100       18.051001        2.109000
 Ga        6.091100       16.410000        0.000000
 Ga        6.900000       16.410000        2.109000
 Ga        4.600000       18.051001        0.000000
 Ga        8.391100       18.051001        2.109000
 Ga       10.691100       16.410000        0.000000
 Ga       11.500000       16.410000        2.109000
 Ga        9.200000       18.051001        0.000000
 Ga       12.991100       18.051001        2.109000
 Ga       15.291100       16.410000        0.000000
 Ga       16.100000       16.410000        2.109000
 Ga       13.800000       18.051001        0.000000
 Ga       17.591101       18.051001        2.109000
 Ga       19.891100       16.410000        0.000000
 Ga       20.700001       16.410000        2.109000
 Ga       18.400000       18.051001        0.000000
 Ga       22.191099       18.051001        2.109000
 Ga       24.491100       16.410000        0.000000
 Ga       25.299999       16.410000        2.109000
 Ga       23.000000       18.051001        0.000000
 Ga       26.791100       18.051001        2.109000
 Ga       29.091101       16.410000        0.000000
 Ga       29.900000       16.410000        2.109000
 Ga       27.600000       18.051001        0.000000
 Ga       31.391100       18.051001        2.109000
 Ga       33.691101       16.410000        0.000000
 Ga       34.500000       16.410000        2.109000
 Ga       32.200001       18.051001        0.000000
 Ga       35.991100       18.051001        2.109000
 Ga       38.291100       16.410000        0.000000
 Ga       39.099998       16.410000        2.109000
 Ga       36.799999       18.051001        0.000000
 Ga       40.591099       18.051001        2.109000
 Ga       42.891102       16.410000        0.000000
 Ga       43.700001       16.410000        2.109000
 Ga       41.400002       18.051001        0.000000
 Ga       45.191101       18.051001        2.109000
 Ga       47.491100       16.410000        0.000000
 Ga       48.299999       16.410000        2.109000
 Ga       46.000000       18.051001        0.000000
 Ga       49.791100       18.051001        2.109000
 Ga        1.491100       19.691999        0.000000
 Ga        2.300000       19.691999        2.109000
 Ga        0.000000       21.333000        0.000000
 Ga        3.791100       21.333000        2.109000
 Ga        6.091100       19.691999        0.000000
 Ga        6.900000       19.691999        2.109000
 Ga        4.600000       21.333000        0.000000
 Ga        8.391100       21.333000        2.109000
 Ga       10.691100       19.691999        0.000000
 Ga       11.500000       19.691999        2.109000
 Ga        9.200000       21.333000        0.000000
 Ga       12.991100       21.333000        2.109000
 Ga       15.291100       19.691999        0.000000
 Ga       16.100000       19.691999        2.109000
 Ga       13.800000       21.333000        0.000000
 Ga       17.591101       21.333000        2.109000
 Ga       19.891100       19.691999        0.000000
 Ga       20.700001       19.691999        2.109000
 Ga       18.400000       21.333000        0.000000
 Ga       22.191099       21.333000        2.109000
 Ga       24.491100       19.691999        0.000000
 Ga       25.299999       19.691999        2.109000
 Ga       23.000000       21.333000        0.000000
 Ga       26.791100       21.333000        2.109000
 Ga       29.091101       19.691999        0.000000
 Ga       29.900000       19.691999        2.109000
 Ga       27.600000       21.333000        0.000000
 Ga       31.391100       21.333000        2.109000
 Ga       33.691101       19.691999        0.000000
 Ga       34.500000       19.691999        2.109000
 Ga       32.200001       21.333000        0.000000
 Ga       35.991100       21.333000        2.109000
 Ga       38.291100       19.691999        0.000000
 Ga       39.099998       19.691999        2.109000
 Ga       36.799999       21.333000        0.000000
 Ga       40.591099       21.333000        2.109000
 Ga       42.891102       19.691999        0.000000
 Ga       43.700001       19.691999        2.109000
 Ga       41.400002       21.333000        0.000000
 Ga       45.191101       21.333000        2.109000
 Ga       47.491100       19.691999        0.000000
 Ga       48.299999       19.691999        2.109000
 Ga       46.000000       21.333000        0.000000
 Ga       49.791100       21.333000        2.109000
 Ga        1.491100       22.974001        0.000000
 Ga        2.300000       22.974001        2.109000
 Ga        0.000000       24.615000        0.000000
 Ga        3.791100       24.615000        2.109000
 Ga        6.091100       22.974001        0.000000
 Ga        6.900000       22.974001        2.109000
 Ga        4.600000       24.615000        0.000000
 Ga        8.391100       24.615000        2.109000
 Ga       10.691100       22.974001        0.000000
 Ga       11.500000       22.974001        2.109000
 Ga        9.200000       24.615000        0.000000
 Ga       12.991100       24.615000        2.109000
 Ga       15.291100       22.974001        0.000000
 Ga       16.100000       22.974001        2.109000
 Ga       13.800000       24.615000        0.000000
 Ga       17.591101       24.615000        2.109000
 Ga       19.891100       22.974001        0.000000
 Ga       20.700001       22.974001        2.109000
 Ga       18.400000       24.615000        0.000000
 Ga       22.191099       24.615000        2.109000
 Ga       24.491100       22.974001        0.000000
 Ga       25.299999       22.974001        2.109000
 Ga       23.000000       24.615000        0.000000
 Ga       26.791100       24.615000        2.109000
 Ga       29.091101       22.974001        0.000000
 Ga       29.900000       22.974001        2.109000
 Ga       27.600000       24.615000        0.000000
 Ga       31.391100       24.615000        2.109000
 Ga       33.691101       22.974001        0.000000
 Ga       34.500000       22.974001        2.109000
 Ga       32.200001       24.615000        0.000000
 Ga       35.991100       24.615000        2.109000
 Ga       38.291100       22.974001        0.000000
 Ga       39.099998       22.974001        2.109000
 Ga       36.799999       24.615000        0.000000
 Ga       40.591099       24.615000        2.109000
 Ga       42.891102       22.974001        0.000000
 Ga       43.700001       22.974001        2.109000
 Ga       41.400002       24.615000        0.000000
 Ga       45.191101       24.615000        2.109000
 Ga       47.491100       22.974001        0.000000
 Ga       48.299999       22.974001        2.109000
 Ga       46.000000       24.615000        0.000000
 Ga       49.791100       24.615000        2.109000
 Ga        1.491100       26.256001        0.000000
 Ga        2.300000       26.256001        2.109000
 Ga        0.000000       27.896999        0.000000
 Ga        3.791100       27.896999        2.109000
 Ga        6.091100       26.256001        0.000000
 Ga        6.900000       26.256001        2.109000
 Ga        4.600000       27.896999        0.000000
 Ga        8.391100       27.896999        2.109000
 Ga       10.691100       26.256001        0.000000
 Ga       11.500000       26.256001        2.109000
 Ga        9.200000       27.896999        0.000000
 Ga       12.991100       27.896999        2.109000
 Ga       15.291100       26.256001        0.000000
 Ga       16.100000       26.256001        2.109000
 Ga       13.800000       27.896999        0.000000
 Ga       17.591101       27.896999        2.109000
 Ga       19.891100       26.256001        0.000000
 Ga       20.700001       26.256001        2.109000
 Ga       18.400000       27.896999        0.000000
 Ga       22.191099       27.896999        2.109000
 Ga       24.491100       26.256001        0.000000
 Ga       25.299999       26.256001        2.109000
 Ga       23.000000       27.896999        0.000000
 Ga       26.791100       27.896999        2.109000
 Ga       29.091101       26.256001        0.000000
 Ga       29.900000       26.256001        2.109000
 Ga       27.600000       27.896999        0.000000
 Ga       31.391100       27.896999        2.109000
 Ga       33.691101       26.256001        0.000000
 Ga       34.500000       26.256001        2.109000
 Ga       32.200001       27.896999        0.000000
 Ga       35.991100       27.896999        2.109000
 Ga       38.291100       26.256001        0.000000
 Ga       39.099998       26.256001        2.109000
 Ga       36.799999       27.896999        0.000000
 Ga       40.591099       27.896999        2.109000
 Ga       42.891102       26.256001        0.000000
 Ga       43.700001       26.256001        2.109000
 Ga       41.400002       27.896999        0.000000
 Ga       45.191101       27.896999        2.109000
 Ga       47.491100       26.256001        0.000000
 Ga       48.299999       26.256001        2.109000
 Ga       46.000000       27.896999        0.000000
 Ga       49.791100       27.896999        2.109000
 Ga        1.491100       29.538000        0.000000
 Ga        2.300000       29.538000        2.109000
 Ga        0.000000       31.179001        0.000000
 Ga        3.791100       31.179001        2.109000
 Ga        6.091100       29.538000        0.000000
 Ga        6.900000       29.538000        2.109000
 Ga        4.600000       31.179001        0.000000
 Ga        8.391100       31.179001        2.109000
 Ga       10.691100       29.538000        0.000000
 Ga       11.500000       29.538000        2.109000
 Ga        9.200000       31.179001        0.000000
 Ga       12.991100       31.179001        2.109000
 Ga       15.291100       29.538000        0.000000
 Ga       16.100000       29.538000        2.109000
 Ga       13.800000       31.179001        0.000000
 Ga       17.591101       31.179001        2.109000
 Ga       19.891100       29.538000        0.000000
 Ga       20.700001       29.538000        2.109000
 Ga       18.400000       31.179001        0.000000
 Ga       22.191099       31.179001        2.109000
 Ga       24.491100       29.538000        0.000000
 Ga       25.299999       29.538000        2.109000
 Ga       23.000000       31.179001        0.000000
 Ga       26.791100       31.179001        2.109000
 Ga       29.091101       29.538000        0.000000
 Ga       29.900000       29.538000        2.109000
 Ga       27.600000       31.179001        0.000000
 Ga       31.391100       31.179001        2.109000
 Ga       33.691101       29.538000        0.000000
 Ga       34.500000       29.538000        2.109000
 Ga       32.200001       31.179001        0.000000
 Ga       35.991100       31.179001        2.109000
 Ga       38.291100       29.538000        0.000000
 Ga       39.099998       29.538000        2.109000
 Ga       36.799999       31.179001        0.000000
 Ga       40.591099       31.179001        2.109000
 Ga       42.891102       29.538000        0.000000
 Ga       43.700001       29.538000        2.109000
 Ga       41.400002       31.179001        0.000000
 Ga       45.191101       31.179001        2.109000
 Ga       47.491100       29.538000        0.000000
 Ga       48.299999       29.538000        2.109000
 Ga       46.000000       31.179001        0.000000
 Ga       49.791100       31.179001        2.109000
 Ga        1.491100       32.820000        0.000000
 Ga        2.300000       32.820000        2.109000
 Ga        0.000000       34.460999        0.000000
 Ga        3.791100       34.460999        2.109000
 Ga        6.091100       32.820000        0.000000
 Ga        6.900000       32.820000        2.109000
 Ga        4.600000       34.460999        0.000000
 Ga        8.391100       34.460999        2.109000
 Ga       10.691100       32.820000        0.000000
 Ga       11.500000       32.820000        2.109000
 Ga        9.200000       34.460999        0.000000
 Ga       12.991100       34.460999        2.109000
 Ga       15.291100       32.820000        0.000000
 Ga       16.100000       32.820000        2.109000
 Ga       13.800000       34.460999        0.000000
 Ga       17.591101       34.460999        2.109000
 Ga       19.891100       32.820000        0.000000
 Ga       20.700001       32.820000        2.109000
 Ga       18.400000       34.460999        0.000000
 Ga       22.191099       34.460999        2.109000
 Ga       24.491100       32.820000        0.000000
 Ga       25.299999       32.820000        2.109000
 Ga       23.000000       34.460999        0.000000
 Ga       26.791100       34.460999        2.109000
 Ga       29.091101       32.820000        0.000000
 Ga       29.900000       32.820000        2.109000
 Ga       27.600000       34.460999        0.000000
 Ga       31.391100       34.460999        2.109000
 Ga       33.691101       32.820000        0.000000
 Ga       34.500000       32.820000        2.109000
 Ga       32.200001       34.460999        0.000000
 Ga       35.991100       34.460999        2.109000
 Ga       38.291100       32.820000        0.000000
 Ga       39.099998       32.820000        2.109000
 Ga       36.799999       34.460999        0.000000
 Ga       40.591099       34.460999        2.109000
 Ga       42.891102       32.820000        0.000000
 Ga       43.700001       32.820000        2.109000
 Ga       41.400002       34.460999        0.000000
 Ga       45.191101       34.460999        2.109000
 Ga       47.491100       32.820000        0.000000
 Ga       48.299999       32.820000        2.109000
 Ga       46.000000       34.460999        0.000000
 Ga       49.791100       34.460999        2.109000
 Ga        1.491100       36.102001        0.000000
 Ga        2.300000       36.102001        2.109000
 Ga        0.000000       37.743000        0.000000
 Ga        3.791100       37.743000        2.109000
 Ga        6.091100       36.102001        0.000000
 Ga        6.900000       36.102001        2.109000
 Ga        4.600000       37.743000        0.000000
 Ga        8.391100       37.743000        2.109000
 Ga       10.691100       36.102001        0.000000
 Ga       11.500000       36.102001        2.109000
 Ga        9.200000       37.743000        0.000000
 Ga       12.991100       37.743000        2.109000
 Ga       15.291100       36.102001        0.000000
 Ga       16.100000       36.102001        2.109000
 Ga       13.800000       37.743000        0.000000
 Ga       17.591101       37.743000        2.109000
 Ga       19.891100       36.102001        0.000000
 Ga       20.700001       36.102001        2.109000
 Ga       18.400000       37.743000        0.000000
 Ga       22.191099       37.743000        2.109000
 Ga       24.491100       36.102001        0.000000
 Ga       25.299999       36.102001        2.109000
 Ga       23.000000       37.743000        0.000000
 Ga       26.791100       37.743000        2.109000
 Ga       29.091101       36.102001        0.000000
 Ga       29.900000       36.102001        2.109000
 Ga       27.600000       37.743000        0.000000
 Ga       31.391100       37.743000        2.109000
 Ga       33.691101       36.102001        0.000000
 Ga       34.500000       36.102001        2.109000
 Ga       32.200001       37.743000        0.000000
 Ga       35.991100       37.743000        2.109000
 Ga       38.291100       36.102001        0.000000
 Ga       39.099998       36.102001        2.109000
 Ga       36.799999       37.743000        0.000000
 Ga       40.591099       37.743000        2.109000
 Ga       42.891102       36.102001        0.000000
 Ga       43.700001       36.102001        2.109000
 Ga       41.400002       37.743000        0.000000
 Ga       45.191101       37.743000        2.109000
 Ga       47.491100       36.102001        0.000000
 Ga       48.299999       36.102001        2.109000
 Ga       46.000000       37.743000        0.000000
 Ga       49.791100       37.743000        2.109000
 Ga        1.491100       39.383999        0.000000
 Ga        2.300000       39.383999        2.109000
 Ga        0.000000       41.025002        0.000000
 Ga        3.791100       41.025002        2.109000
 Ga        6.091100       39.383999        0.000000
 Ga        6.900000       39.383999        2.109000
 Ga        4.600000       41.025002        0.000000
 Ga        8.391100       41.025002        2.109000
 Ga       10.691100       39.383999        0.000000
 Ga       11.500000       39.383999        2.109000
 Ga        9.200000       41.025002        0.000000
 Ga       12.991100       41.025002        2.109000
 Ga       15.291100       39.383999        0.000000
 Ga       16.100000       39.383999        2.109000
 Ga       13.800000       41.025002        0.000000
 Ga       17.591101       41.025002        2.109000
 Ga       19.891100       39.383999        0.000000
 Ga       20.700001       39.383999        2.109000
 Ga       18.400000       41.025002        0.000000
 Ga       22.191099       41.025002        2.109000
 Ga       24.491100       39.383999        0.000000
 Ga       25.299999       39.383999        2.109000
 Ga       23.000000       41.025002        0.000000
 Ga       26.791100       41.025002        2.109000
 Ga       29.091101       39.383999        0.000000
 Ga       29.900000       39.383999        2.109000
 Ga       27.600000       41.025002        0.000000
 Ga       31.391100       41.025002        2.109000
 Ga       33.691101       39.383999        0.000000
 Ga       34.500000       39.383999        2.109000
 Ga       32.200001       41.025002        0.000000
 Ga       35.991100       41.025002        2.109000
 Ga       38.291100       39.383999        0.000000
 Ga       39.099998       39.383999        2.109000
 Ga       36.799999       41.025002        0.000000
 Ga       40.591099       41.025002        2.109000
 Ga       42.891102       39.383999        0.000000
 Ga       43.700001       39.383999        2.109000
 Ga       41.400002       41.025002        0.000000
 Ga       45.191101       41.025002        2.109000
 Ga       47.491100       39.383999        0.000000
 Ga       48.299999       39.383999        2.109000
 Ga       46.000000       41.025002        0.000000
 Ga       49.791100       41.025002        2.109000
 Ga        1.491100       42.666000        0.000000
 Ga        2.300000       42.666000        2.109000
 Ga        0.000000       44.306999        0.000000
 Ga        3.791100       44.306999        2.109000
 Ga        6.091100       42.666000        0.000000
 Ga        6.900000       42.666000        2.109000
 Ga        4.600000       44.306999        0.000000
 Ga        8.391100       44.306999        2.109000
 Ga       10.691100       42.666000        0.000000
 Ga       11.500000       42.666000        2.109000
 Ga        9.200000       44.306999        0.000000
 Ga       12.991100       44.306999        2.109000
 Ga       15.291100       42.666000        0.000000
 Ga       16.100000       42.666000        2.109000
 Ga       13.800000       44.306999        0.000000
 Ga       17.591101       44.306999        2.109000
 Ga       19.891100       42.666000        0.000000
 Ga       20.700001       42.666000        2.109000
 Ga       18.400000       44.306999        0.000000
 Ga       22.191099       44.306999        2.109000
 Ga       24.491100       42.666000        0.000000
 Ga       25.299999       42.666000        2.109000
 Ga       23.000000       44.306999        0.000000
 Ga       26.791100       44.306999        2.109000
 Ga       29.091101       42.666000        0.000000
 Ga       29.900000       42.666000        2.109000
 Ga       27.600000       44.306999        0.000000
 Ga       31.391100       44.306999        2.109000
 Ga       33.691101       42.666000        0.000000
 Ga       34.500000       42.666000        2.109000
 Ga       32.200001       44.306999        0.000000
 Ga       35.991100       44.306999        2.109000
 Ga       38.291100       42.666000        0.000000
 Ga       39.099998       42.666000        2.109000
 Ga       36.799999       44.306999        0.000000
 Ga       40.591099       44.306999        2.109000
 Ga       42.891102       42.666000        0.000000
 Ga       43.700001       42.666000        2.109000
 Ga       41.400002       44.306999        0.000000
 Ga       45.191101       44.306999        2.109000
 Ga       47.491100       42.666000        0.000000
 Ga       48.299999       42.666000        2.109000
 Ga       46.000000       44.306999        0.000000
 Ga       49.791100       44.306999        2.109000
 Ga        1.491100       45.948002        0.000000
 Ga        2.300000       45.948002        2.109000
 Ga        0.000000       47.589001        0.000000
 Ga        3.791100       47.589001        2.109000
 Ga        6.091100       45.948002        0.000000
 Ga        6.900000       45.948002        2.109000
 Ga        4.600000       47.589001        0.000000
 Ga        8.391100       47.589001        2.109000
 Ga       10.691100       45.948002        0.000000
 Ga       11.500000       45.948002        2.109000
 Ga        9.200000       47.589001        0.000000
 Ga       12.991100       47.589001        2.109000
 Ga       15.291100       45.948002        0.000000
 Ga       16.100000       45.948002        2.109000
 Ga       13.800000       47.589001        0.000000
 Ga       17.591101       47.589001        2.109000
 Ga       19.891100       45.948002        0.000000
 Ga       20.700001       45.948002        2.109000
 Ga       18.400000       47.589001        0.000000
 Ga       22.191099       47.589001        2.109000
 Ga       24.491100       45.948002        0.000000
 Ga       25.299999       45.948002        2.109000
 Ga       23.000000       47.589001        0.000000
 Ga       26.791100       47.589001        2.109000
 Ga       29.091101       45.948002        0.000000
 Ga       29.900000       45.948002        2.109000
 Ga       27.600000       47.589001        0.000000
 Ga       31.391100       47.589001        2.109000
 Ga       33.691101       45.948002        0.000000
 Ga       34.500000       45.948002        2.109000
 Ga       32.200001       47.589001        0.000000
 Ga       35.991100       47.589001        2.109000
 Ga       38.291100       45.948002        0.000000
 Ga       39.099998       45.948002        2.109000
 Ga       36.799999       47.589001        0.000000
 Ga       40.591099       47.589001        2.109000
 Ga       42.891102       45.948002        0.000000
 Ga       43.700001       45.948002        2.109000
 Ga       41.400002       47.589001        0.000000
 Ga       45.191101       47.589001        2.109000
 Ga       47.491100       45.948002        0.000000
 Ga       48.299999       45.948002        2.109000
 Ga       46.000000       47.589001        0.000000
 Ga       49.791100       47.589001        2.109000
 Ga        1.491100       49.230000        0.000000
 Ga        2.300000       49.230000        2.109000
 Ga        6.091100       49.230000        0.000000
 Ga        6.900000       49.230000        2.109000
 Ga       10.691100       49.230000        0.000000
 Ga       11.500000       49.230000        2.109000
 Ga       15.291100       49.230000        0.000000
 Ga       16.100000       49.230000        2.109000
 Ga       19.891100       49.230000        0.000000
 Ga       20.700001       49.230000        2.109000
 Ga       24.491100       49.230000        0.000000
 Ga       25.299999       49.230000        2.109000
 Ga       29.091101       49.230000        0.000000
 Ga       29.900000       49.230000        2.109000
 Ga       33.691101       49.230000        0.000000
 Ga       34.500000       49.230000        2.109000
 Ga       38.291100       49.230000        0.000000
 Ga       39.099998       49.230000        2.109000
 Ga       42.891102       49.230000        0.000000
 Ga       43.700001       49.230000        2.109000
 Ga       47.491100       49.230000        0.000000
 Ga       48.299999       49.230000        2.109000
